/batch
/config,noeldb,1     ! force off writing results to database
*get,_wallstrt,active,,time,wall
! ANSYS input file written by Workbench version 2023 R1
! File used for geometry attach: C:\Users\lenna\Desktop\Simulation_in_der_Gerätetechnik\FEM\Etappe 1\FEM1_Ansys_19_files\dp0\SYS-5\DM\SYS-5.scdoc
/title,FEM1_Ansys_19--Statisch-mechanisch (E5)
! ****** Begin Custom Load Command Snippet ******
/COM, ACT Extensions:
/COM,     LSDYNA, 2023.1
/COM,     5f463412-bd3e-484b-87e7-cbc0a665e474, wbex
/COM,/COM,     ANSYSMotion, 2023.1
/COM,     20180725-3f81-49eb-9f31-41364844c769, wbex
/COM,
! ****** End   Custom Load Command Snippet ******
*DIM,_wb_ProjectScratch_dir,string,248
_wb_ProjectScratch_dir(1) = 'C:\Users\lenna\Desktop\Simulation_in_der_Gerätetechnik\FEM\Etappe 1\_ProjectScratch\ScrC56C\'
*DIM,_wb_SolverFiles_dir,string,248
_wb_SolverFiles_dir(1) = 'C:\Users\lenna\Desktop\Simulation_in_der_Gerätetechnik\FEM\Etappe 1\FEM1_Ansys_19_files\dp0\SYS-5\MECH\'
*DIM,_wb_userfiles_dir,string,248
_wb_userfiles_dir(1) = 'C:\Users\lenna\Desktop\Simulation_in_der_Gerätetechnik\FEM\Etappe 1\FEM1_Ansys_19_files\user_files\'
/com,--- Data in consistent NMM units. See Solving Units in the help system for more information.
/units,MPA
/nopr
/wb,file,start              !  signify a WB generated input file
/prep7
! Turn off shape checking because checks already performed inside WB mesher.
! See help system for more information.
SHPP,OFF,,NOWARN
/nolist
etcon,set             ! allow ANSYS to choose best KEYOP's for 180x elements, resets any applicable keyopt to MAPDL defaults
/com,*********** Nodes for the whole assembly ***********
nblock,3,,1565
(1i9,3e20.9e3)
        1     1.500000000E+01     5.000000000E+00     0.000000000E+00
        2     1.874966775E+01     1.387603328E+00     0.000000000E+00
        3     1.819000000E+01    -6.124042902E-17     0.000000000E+00
        4     1.500000000E+01    -3.029637491E-16     0.000000000E+00
        5     2.019000000E+01     2.000000000E+00     0.000000000E+00
        6     2.019000000E+01     5.000000000E+00     0.000000000E+00
        7     2.119000000E+01     5.000000000E+00     0.000000000E+00
        8     2.058223227E+01     1.961161351E+00     0.000000000E+00
        9     2.519000000E+01     0.000000000E+00     0.000000000E+00
       10     2.219000000E+01     4.044532498E-21     0.000000000E+00
       11     2.519000000E+01     1.000000000E+00     0.000000000E+00
       12     2.215116135E+01     3.922322703E-01     0.000000000E+00
       13     0.000000000E+00     5.000000000E+00     0.000000000E+00
       14     0.000000000E+00     0.000000000E+00     0.000000000E+00
       15     4.303602247E-01     4.642796386E+00     0.000000000E+00
       16     9.247727187E-01     4.642816842E+00     0.000000000E+00
       17     1.473617958E+00     4.642839550E+00     0.000000000E+00
       18     2.024098700E+00     4.642862325E+00     0.000000000E+00
       19     2.574579444E+00     4.642885101E+00     0.000000000E+00
       20     3.125060191E+00     4.642907877E+00     0.000000000E+00
! ... 1404 like lines cut
/wb,elem,start            !  set before creation of elements
/com,*********** Elements for Body 1 "SYS-5\Oberfl_che" ***********
et,1,182
keyo,1,3,3
eblock,19,solid,,1320
(19i9)
        1        1        1        1        0        0        0        0        4        0        1     1423     1201      445        4
        1        1        1        1        0        0        0        0        4        0        2     1422     1214     1201     1423
        1        1        1        1        0        0        0        0        4        0        3     1421     1227     1214     1422
        1        1        1        1        0        0        0        0        4        0        4     1420     1240     1227     1421
        1        1        1        1        0        0        0        0        4        0        5     1419     1253     1240     1420
        1        1        1        1        0        0        0        0        4        0        6     1418     1266     1253     1419
        1        1        1        1        0        0        0        0        4        0        7     1417     1279     1266     1418
        1        1        1        1        0        0        0        0        4        0        8     1416     1292     1279     1417
        1        1        1        1        0        0        0        0        4        0        9     1415     1305     1292     1416
        1        1        1        1        0        0        0        0        4        0       10     1414     1318     1305     1415
        1        1        1        1        0        0        0        0        4        0       11     1413     1331     1318     1414
        1        1        1        1        0        0        0        0        4        0       12     1412     1344     1331     1413
        1        1        1        1        0        0        0        0        4        0       13     1411     1357     1344     1412
        1        1        1        1        0        0        0        0        4        0       14     1410     1370     1357     1411
        1        1        1        1        0        0        0        0        4        0       15     1409     1383     1370     1410
        1        1        1        1        0        0        0        0        4        0       16        3     1408     1383     1409
        1        1        1        1        0        0        0        0        4        0       17     1201     1202      444      445
        1        1        1        1        0        0        0        0        4        0       18     1214     1215     1202     1201
        1        1        1        1        0        0        0        0        4        0       19     1227     1228     1215     1214
        1        1        1        1        0        0        0        0        4        0       20     1240     1241     1228     1227
! ... 1301 like lines cut
!Material Id = {FAA73DFB-01F5-4622-85C0-1C51489299B8}
/wb,elem,end               !  done creating elements
/com,*********** Send User Defined Coordinate System(s) ***********
csys,0
toffst,273.15,  ! Temperature offset from absolute zero
/com,*********** Set Reference Temperature ***********
tref,22.
/wb,mat,start              !  starting to send materials
/com,*********** Send Materials ***********
Temperature = 'TEMP' ! Temperature
MP,DENS,1,7.84e-09,	! tonne mm^-3
MP,ALPX,1,1.2e-05,	! C^-1
MP,C,1,434000000,	! mm^2 s^-2 C^-1
MP,KXX,1,60.5,	! tonne mm s^-3 C^-1
MP,RSVX,1,0.00017,	! ohm mm
MP,EX,1,206000,	! tonne s^-2 mm^-1
MP,NUXY,1,0.3,
MP,MURX,1,10000,
MP,UVID,1,3d9f202a-73c8-4399-880b-46cf50fb5a52
MP,UMID,1,59002a79-71c2-428e-906b-55d7dbee100e

/wb,mat,end                !  done sending materials
/com,*********** Send Sheet Properties ***********
r,1,1.

!************************* Model Summary ********************
!SYS-5\Oberfl_che,	C35,	matid,	1
!************************* End Model Summary ********************
! get the diagonal of the bounding box. Needed later for other things
*get,_xmin,node,,mnloc,x
*get,_ymin,node,,mnloc,y
*get,_zmin,node,,mnloc,z
*get,_xmax,node,,mxloc,x
*get,_ymax,node,,mxloc,y
*get,_zmax,node,,mxloc,z
_ASMDIAG=(_xmax-_xmin)*(_xmax-_xmin)+(_ymax-_ymin)*(_ymax-_ymin)+(_zmax-_zmin)*(_zmax-_zmin)
_ASMDIAG=SQRT(_ASMDIAG)
/wb,contact,start          !  starting to send contact
/wb,contact,end            !  done creating contacts
/golist
/wb,load,start             !  starting to send loads
/com,*********** Fixed Supports ***********
CMBLOCK,_FIXEDSU,NODE,       59
(8i10)
         2         3         5         8        10        12       731       732
       733       734       735       736       737       738       739       740
       741       742       743       744       745       746       747       748
       749       859       860       861       862      1090      1091      1092
      1093      1094      1095      1096      1097      1098      1099      1100
      1101      1102      1193      1194      1195      1196      1396      1397
      1398      1399      1400      1401      1402      1403      1404      1405
      1406      1407      1408
cmsel,s,_FIXEDSU
d,all,all
nsel,all
/com,******* Constant Zero Displacement Y *******
CMBLOCK,_DISPZEROUY,NODE,       60
(8i10)
         4         9        14       366       367       368       369       370
       371       372       373       374       375       376       377       378
       379       380       381       382       383       384       385       386
       387       388       389       390       391       392       867       868
       869       870       871       872       873       874       875       876
       877       878       879       880       881      1409      1410      1411
      1412      1413      1414      1415      1416      1417      1418      1419
      1420      1421      1422      1423
cmsel,s,_DISPZEROUY
d,all,uy,0
nsel,all
/com,*********** Define Force Using Surface Effect Elements ***********
local,12,0,0.,0.,0.,0.,0.,0.
csys,0
et,2,153
keyop,2,3,10        ! get plane stress option and thickness from underlying element
eblock,10,,,14
(15i9)
     1321        2        2        2       12      405       13
     1322        2        2        2       12      404      405
     1323        2        2        2       12      403      404
     1324        2        2        2       12      402      403
     1325        2        2        2       12      401      402
     1326        2        2        2       12      400      401
     1327        2        2        2       12      399      400
     1328        2        2        2       12      398      399
     1329        2        2        2       12      397      398
     1330        2        2        2       12      396      397
     1331        2        2        2       12      395      396
     1332        2        2        2       12      394      395
     1333        2        2        2       12      393      394
     1334        2        2        2       12       14      393
-1
esel,s,type,,2
keyop,2,2,1                ! Apply load in local coordinate system
keyop,2,7,1                ! Use original area so load is constant in large deformation
keyop,2,11,2               ! Use real and not project area
esel,all
/gst,on,on
fini
*get,_numnode,node,0,count
*get,_numelem,elem,0,count
*get, _MAXELEMNUM, elem, 0, NUM, MAX
*get, _MAXNODENUM, node, 0, NUM, MAX
*get, _MAXELEMTYPE, etyp, 0, NUM, MAX
*get, _MAXREALCONST, rcon, 0, NUM, MAX
/go
/wb,load,end               !  done creating loads
/com,--- Number of total nodes = %_numnode%
/com,--- Number of contact elements = 14
/com,--- Number of spring elements = 0
/com,--- Number of bearing elements = 0
/com,--- Number of solid elements = 1320
/com,--- Number of condensed parts = 0
/com,--- Number of total elements = %_numelem%
*get,_wallbsol,active,,time,wall
/com,****************************************************************************
/com,*************************    SOLUTION       ********************************
/com,****************************************************************************
/solu
antype,0                   ! static analysis
_thickRatio=  0     ! Ratio of thick parts in the model
eqsl,sparse,,,,,1
cntr,print,1               ! print out contact info and also make no initial contact an error
dmpoption,emat,no             ! Don't combine emat file for DANSYS
dmpoption,esav,no             ! Don't combine esav file for DANSYS
nldiag,cont,iter           ! print out contact info each equilibrium iteration
rescontrol,,none                 ! Do not keep any restart files
/com,****************************************************
/com,******************* SOLVE FOR LS 1 OF 1 ****************
esel,s,type,,2
nsle
sfe,all,1,pres,1,-114.375
sfe,all,2,pres,1,0.
nsel,all
esel,all
/nopr
/gopr
nsub,1,1,1
time,1.
outres,erase
outres,all,none
outres,nsol,all,
outres,rsol,all
outres,eangl,all
outres,etmp,all
outres,veng,all
outres,strs,all,
outres,epel,all,
outres,eppl,all,
outres,cont,all,
! *********** WB SOLVE COMMAND ***********
! check interactive state
*get,ANSINTER_,active,,int
*if,ANSINTER_,ne,0,then
/eof
*endif
solve
/com *************** Write FE CONNECTORS ********* 
CEWRITE,file,ce,,INTE
/com,****************************************************
/com,*************** FINISHED SOLVE FOR LS 1 *************
*get,_wallasol,active,,time,wall
/nopr
*get,_numnode,node,0,count
*get,_numelem,elem,0,count
*get, _MAXELEMNUM, elem, 0, NUM, MAX
*get, _MAXNODENUM, node, 0, NUM, MAX,,,INTERNAL
*get, _MAXELEMTYPE, etyp, 0, NUM, MAX
*get, _MAXREALCONST, rcon, 0, NUM, MAX
*get,_NSOLTHREADS,active,0,ntfs
*get,_NSOLPROCESSES,active,0,npfs
/gopr
/post1
xmlo,ENCODING,ISO-8859-1
xmlo,parm
/xml,parm,xml
fini
/gopr
*get,_walldone,active,,time,wall
_preptime=(_wallbsol-_wallstrt)*3600
_solvtime=(_wallasol-_wallbsol)*3600
_posttime=(_walldone-_wallasol)*3600
_totaltim=(_walldone-_wallstrt)*3600
*get,_dlbratio,active,0,solu,dlbr
*get,_combtime,active,0,solu,comb
*get,_ssmode,active,0,solu,ssmm
*get,_ndofs,active,0,solu,ndof
*get,_sol_end_time,active,0,set,time
*if,_sol_end_time,eq,1.000000,then
/fclean				!clean distributed files
*endif
/com,--- Total number of nodes = %_numnode%
/com,--- Total number of elements = %_numelem%
/com,--- Element load balance ratio = %_dlbratio%
/com,--- Time to combine distributed files = %_combtime%
/com,--- Sparse memory mode = %_ssmode%
/com,--- Number of DOF = %_ndofs%
/wb,file,end               ! done with WB generated input
